                                   MODFLOW 6
                U.S. GEOLOGICAL SURVEY MODULAR HYDROLOGIC MODEL
                          GROUNDWATER FLOW MODEL (GWF)
                   VERSION 6.3.0 release candidate 02/06/2022
                               ***DEVELOP MODE***

   MODFLOW 6 compiled Feb 06 2022 02:35:51 with Intel(R) Fortran Intel(R) 64
   Compiler Classic for applications running on Intel(R) 64, Version 2021.5.0
                             Build 20211109_000000

This software is preliminary or provisional and is subject to 
revision. It is being provided to meet the need for timely best 
science. The software has not received final approval by the U.S. 
Geological Survey (USGS). No warranty, expressed or implied, is made 
by the USGS or the U.S. Government as to the functionality of the 
software and related material nor shall the fact of release 
constitute any such warranty. The software is provided on the 
condition that neither the USGS nor the U.S. Government shall be held 
liable for any damages resulting from the authorized or unauthorized 
use of the software.


As a work of the United States Government, this USGS product is 
in the public domain within the United States. You can copy, 
modify, distribute, and perform the work, even for commercial 
purposes, all without asking permission. Additionally, USGS 
waives copyright and related rights in the work worldwide 
through CC0 1.0 Universal Public Domain Dedication 
(https://creativecommons.org/publicdomain/zero/1.0/).

The following GNU Lesser General Public License (LGPL) libraries
are used in this USGS product:

    SPARSKIT version 2.0
      ilut, luson, and qsplit 
      (https://www-users.cse.umn.edu/~saad/software/SPARSKIT/)

    RCM - Reverse Cuthill McKee Ordering
      (https://people.math.sc.edu/Burkardt/f_src/rcm/rcm.html)

    BLAS - Basic Linear Algebra Subprograms Level 1
      (https://people.math.sc.edu/Burkardt/f_src/blas1_d/blas1_d.html)

    SPARSEKIT - Sparse Matrix Utility Package
      amux, dperm, dvperm, rperm, and cperm
      (https://people.sc.fsu.edu/~jburkardt/f77_src/sparsekit/sparsekit.html)

The following BSD-3 License libraries are used in this USGS product:

    Modern Fortran DAG Library
      Copyright (c) 2018, Jacob Williams
      All rights reserved.
      (https://github.com/jacobwilliams/daglib)

MODFLOW 6 compiler options: /O2 /heap-arrays:0 /fpe:0 /traceback /nologo /fpp
/c /module:.\mod_temp\ /object:.\obj_temp\

System command used to initiate simulation:
D:\Phd\dev_software\rev_1st_round\improve\example\01_create_gw\mf6.exe

MODFLOW was compiled using uniform precision.

Real Variables
  KIND: 8
  TINY (smallest non-zero value):    2.225074-308
  HUGE (largest value):    1.797693+308
  PRECISION: 15
  BIT SIZE: 64

Integer Variables
  KIND: 4
  HUGE (largest value): 2147483647
  BIT SIZE: 32

Long Integer Variables
  KIND: 8
  HUGE (largest value): 9223372036854775807
  BIT SIZE: 64

Logical Variables
  KIND: 4
  BIT SIZE: 32
 

 OPENED downsc_freyberg.dis
 FILE TYPE:DIS6                   UNIT 1005   STATUS:OLD                 
 FORMAT:FORMATTED              ACCESS:SEQUENTIAL          
 ACTION:READ                


 OPENED downsc_freyberg.ic
 FILE TYPE:IC6                    UNIT 1006   STATUS:OLD                 
 FORMAT:FORMATTED              ACCESS:SEQUENTIAL          
 ACTION:READ                


 OPENED downsc_freyberg.npf
 FILE TYPE:NPF6                   UNIT 1007   STATUS:OLD                 
 FORMAT:FORMATTED              ACCESS:SEQUENTIAL          
 ACTION:READ                


 OPENED downsc_freyberg.sto
 FILE TYPE:STO6                   UNIT 1008   STATUS:OLD                 
 FORMAT:FORMATTED              ACCESS:SEQUENTIAL          
 ACTION:READ                


 OPENED downsc_freyberg.rcha
 FILE TYPE:RCH6                   UNIT 1009   STATUS:OLD                 
 FORMAT:FORMATTED              ACCESS:SEQUENTIAL          
 ACTION:READ                


 OPENED downsc_freyberg.wel
 FILE TYPE:WEL6                   UNIT 1010   STATUS:OLD                 
 FORMAT:FORMATTED              ACCESS:SEQUENTIAL          
 ACTION:READ                


 OPENED downsc_freyberg.ghb
 FILE TYPE:GHB6                   UNIT 1011   STATUS:OLD                 
 FORMAT:FORMATTED              ACCESS:SEQUENTIAL          
 ACTION:READ                


 OPENED downsc_freyberg.sfr
 FILE TYPE:SFR6                   UNIT 1012   STATUS:OLD                 
 FORMAT:FORMATTED              ACCESS:SEQUENTIAL          
 ACTION:READ                


 OPENED downsc_freyberg.oc
 FILE TYPE:OC6                    UNIT 1013   STATUS:OLD                 
 FORMAT:FORMATTED              ACCESS:SEQUENTIAL          
 ACTION:READ                


 OPENED downsc_freyberg.obs
 FILE TYPE:OBS6                   UNIT 1014   STATUS:OLD                 
 FORMAT:FORMATTED              ACCESS:SEQUENTIAL          
 ACTION:READ                

 NAMEFILE OPTIONS:
    FLOWS WILL BE SAVED TO BUDGET FILE SPECIFIED IN OUTPUT CONTROL
    NEWTON-RAPHSON method enabled for the model.

 DIS -- STRUCTURED GRID DISCRETIZATION PACKAGE, VERSION 2 : 3/27/2014 - INPUT READ FROM UNIT 1005


 # File generated by Flopy version 3.9.5 on 01/08/2026 at 22:43:08.
 PROCESSING DISCRETIZATION OPTIONS
    MODEL LENGTH UNIT IS METERS
 END OF DISCRETIZATION OPTIONS
 PROCESSING DISCRETIZATION DIMENSIONS
    NLAY =       1
    NROW =      40
    NCOL =      20
 END OF DISCRETIZATION DIMENSIONS
 PROCESSING GRIDDATA

 OPENED downsc_freyberg.dis_delr.txt
 FILE TYPE:OPEN/CLOSE   UNIT 1016   STATUS:OLD                 
 FORMAT:FORMATTED              ACCESS:SEQUENTIAL          
 ACTION:READ                


 OPENED downsc_freyberg.dis_delc.txt
 FILE TYPE:OPEN/CLOSE   UNIT 1017   STATUS:OLD                 
 FORMAT:FORMATTED              ACCESS:SEQUENTIAL          
 ACTION:READ                


 OPENED downsc_freyberg.dis_top.txt
 FILE TYPE:OPEN/CLOSE   UNIT 1018   STATUS:OLD                 
 FORMAT:FORMATTED              ACCESS:SEQUENTIAL          
 ACTION:READ                


 OPENED downsc_freyberg.dis_botm.txt
 FILE TYPE:OPEN/CLOSE   UNIT 1019   STATUS:OLD                 
 FORMAT:FORMATTED              ACCESS:SEQUENTIAL          
 ACTION:READ                


 OPENED downsc_freyberg.dis_idomain.txt
 FILE TYPE:OPEN/CLOSE   UNIT 1020   STATUS:OLD                 
 FORMAT:FORMATTED              ACCESS:SEQUENTIAL          
 ACTION:READ                

 END PROCESSING GRIDDATA

 THE SPECIFIED IDOMAIN RESULTS IN A REDUCED NUMBER OF CELLS.
 NUMBER OF USER NODES: 800
 NUMBER OF NODES IN SOLUTION: 706



 NPF -- NODE PROPERTY FLOW PACKAGE, VERSION 1, 3/30/2015 INPUT READ FROM UNIT 1007


 # File generated by Flopy version 3.9.5 on 01/08/2026 at 22:43:08.
 PROCESSING NPF OPTIONS
    SPECIFIC DISCHARGE WILL BE CALCULATED AT CELL CENTERS AND WRITTEN TO DATA-SPDIS IN BUDGET FILE WHEN REQUESTED.
 END OF NPF OPTIONS

 WEL   -- WEL PACKAGE, VERSION 8, 2/22/2014 INPUT READ FROM UNIT 1010
 # File generated by Flopy version 3.9.5 on 01/08/2026 at 22:43:09.

 PROCESSING WEL OPTIONS
    LISTS OF WEL CELLS WILL BE PRINTED.
    WEL FLOWS WILL BE PRINTED TO LISTING FILE.
    FLOWS WILL BE SAVED TO BUDGET FILE SPECIFIED IN OUTPUT CONTROL
 END OF WEL OPTIONS

 PROCESSING WEL DIMENSIONS
    MAXBOUND =       7
 END OF WEL DIMENSIONS

 GHB   -- GHB PACKAGE, VERSION 8, 2/22/2014 INPUT READ FROM UNIT 1011
 # File generated by Flopy version 3.9.5 on 01/08/2026 at 22:43:09.

 PROCESSING GHB OPTIONS
 END OF GHB OPTIONS

 PROCESSING GHB DIMENSIONS
    MAXBOUND =      30
 END OF GHB DIMENSIONS

 RCH   -- RCH PACKAGE, VERSION 8, 2/22/2014 INPUT READ FROM UNIT 1009
 # File generated by Flopy version 3.9.5 on 01/08/2026 at 22:43:08.

 PROCESSING RCH OPTIONS
    RECHARGE INPUT WILL BE READ AS ARRAY(S).
 END OF RCHA OPTIONS

 SFR   -- SFR PACKAGE, VERSION 8, 2/22/2014 INPUT READ FROM UNIT 1012
 # File generated by Flopy version 3.9.5 on 01/08/2026 at 22:43:09.

 PROCESSING SFR OPTIONS
    SFR BOUNDARIES HAVE NAMES IN LAST COLUMN.
    LISTS OF SFR CELLS WILL BE PRINTED.
    FLOWS WILL BE SAVED TO BUDGET FILE SPECIFIED IN OUTPUT CONTROL
    MAXIMUM DEPTH CHANGE VALUE (.1000000000000000E-03) SPECIFIED.
    UNIT CONVERSION VALUE (86400.00000000000) SPECIFIED.
 END OF SFR OPTIONS

 PROCESSING SFR DIMENSIONS
    NREACHES = 40
 END OF SFR DIMENSIONS

 OPENED downsc_freyberg.sfr_packagedata.txt
 FILE TYPE:OPEN/CLOSE   UNIT 1021   STATUS:OLD                 
 FORMAT:FORMATTED              ACCESS:SEQUENTIAL          
 ACTION:READ                


 PROCESSING SFR PACKAGEDATA
 END OF SFR PACKAGEDATA

 OPENED downsc_freyberg.sfr_connectiondata.txt
 FILE TYPE:OPEN/CLOSE   UNIT 1022   STATUS:OLD                 
 FORMAT:FORMATTED              ACCESS:SEQUENTIAL          
 ACTION:READ                


 PROCESSING SFR CONNECTIONDATA
 END OF SFR CONNECTIONDATA

 IC -- INITIAL CONDITIONS PACKAGE, VERSION 8, 3/28/2015 INPUT READ FROM UNIT 1006
 # File generated by Flopy version 3.9.5 on 01/08/2026 at 22:43:08.
 PROCESSING IC OPTIONS
 END OF IC OPTIONS
 PROCESSING GRIDDATA

 OPENED downsc_freyberg.ic_strt.txt
 FILE TYPE:OPEN/CLOSE   UNIT 1023   STATUS:OLD                 
 FORMAT:FORMATTED              ACCESS:SEQUENTIAL          
 ACTION:READ                

 END PROCESSING GRIDDATA
 PROCESSING GRIDDATA

 OPENED downsc_freyberg.npf_icelltype.txt
 FILE TYPE:OPEN/CLOSE   UNIT 1024   STATUS:OLD                 
 FORMAT:FORMATTED              ACCESS:SEQUENTIAL          
 ACTION:READ                


 OPENED downsc_freyberg.npf_k.txt
 FILE TYPE:OPEN/CLOSE   UNIT 1025   STATUS:OLD                 
 FORMAT:FORMATTED              ACCESS:SEQUENTIAL          
 ACTION:READ                

 K33 not provided.  Assuming K33 = K.
 K22 not provided.  Assuming K22 = K.
 END PROCESSING GRIDDATA

 STO -- STORAGE PACKAGE, VERSION 1, 5/19/2014 INPUT READ FROM UNIT 1008


 # File generated by Flopy version 3.9.5 on 01/08/2026 at 22:43:08.
 PROCESSING STORAGE OPTIONS
 END OF STORAGE OPTIONS
 PROCESSING GRIDDATA

 OPENED downsc_freyberg.sto_iconvert.txt
 FILE TYPE:OPEN/CLOSE   UNIT 1026   STATUS:OLD                 
 FORMAT:FORMATTED              ACCESS:SEQUENTIAL          
 ACTION:READ                


 OPENED downsc_freyberg.sto_ss.txt
 FILE TYPE:OPEN/CLOSE   UNIT 1027   STATUS:OLD                 
 FORMAT:FORMATTED              ACCESS:SEQUENTIAL          
 ACTION:READ                


 OPENED downsc_freyberg.sto_sy.txt
 FILE TYPE:OPEN/CLOSE   UNIT 1028   STATUS:OLD                 
 FORMAT:FORMATTED              ACCESS:SEQUENTIAL          
 ACTION:READ                

 END PROCESSING GRIDDATA

The observation utility is active for "DOWNSC_FREYBERG"
 # File generated by Flopy version 3.9.5 on 01/08/2026 at 22:43:09.

Processing observation options:

Text output number of digits of precision set to: 10
The PRINT_INPUT option has been specified.


 OBSERVATIONS READ FROM FILE "downsc_freyberg.obs"
 ----------------------------------------------------------------------------------------------------------------------------------------------------------------------------------------------------------------------------
 NAME                                     TYPE                                       TIME         LOCATION DATA                              OUTPUT FILENAME                                                                 
 ----------------------------------------------------------------------------------------------------------------------------------------------------------------------------------------------------------------------------
 TRGW-0-2-15                              CONTINUOUS  HEAD                           ALL TIMES    "  1 3 16"                                 heads.csv                                                                       
 TRGW-0-2-9                               CONTINUOUS  HEAD                           ALL TIMES    "  1 3 10"                                 heads.csv                                                                       
 TRGW-0-3-8                               CONTINUOUS  HEAD                           ALL TIMES    "  1 4 9"                                  heads.csv                                                                       
 TRGW-0-9-1                               CONTINUOUS  HEAD                           ALL TIMES    "  1 10 2"                                 heads.csv                                                                       
 TRGW-0-13-10                             CONTINUOUS  HEAD                           ALL TIMES    "  1 14 11"                                heads.csv                                                                       
 TRGW-0-15-16                             CONTINUOUS  HEAD                           ALL TIMES    "  1 16 17"                                heads.csv                                                                       
 TRGW-0-21-10                             CONTINUOUS  HEAD                           ALL TIMES    "  1 22 11"                                heads.csv                                                                       
 TRGW-0-22-15                             CONTINUOUS  HEAD                           ALL TIMES    "  1 23 16"                                heads.csv                                                                       
 TRGW-0-24-4                              CONTINUOUS  HEAD                           ALL TIMES    "  1 25 5"                                 heads.csv                                                                       
 TRGW-0-26-6                              CONTINUOUS  HEAD                           ALL TIMES    "  1 27 7"                                 heads.csv                                                                       
 TRGW-0-29-15                             CONTINUOUS  HEAD                           ALL TIMES    "  1 30 16"                                heads.csv                                                                       
 TRGW-0-33-7                              CONTINUOUS  HEAD                           ALL TIMES    "  1 34 8"                                 heads.csv                                                                       
 TRGW-0-34-10                             CONTINUOUS  HEAD                           ALL TIMES    "  1 35 11"                                heads.csv                                                                       
 ----------------------------------------------------------------------------------------------------------------------------------------------------------------------------------------------------------------------------


    BINARY GRID INFORMATION WILL BE WRITTEN TO:
      UNIT NUMBER: 1030
      FILE NAME: D:\Phd\dev_software\rev_1st_round\improve\example\01_create_gw\paper_gw_model\downsc_freyberg.dis.grb

 OPENED D:\Phd\dev_software\rev_1st_round\improve\example\01_create_gw\paper_gw_model\downsc_freyberg.dis.grb
 FILE TYPE:DATA(BINARY)   UNIT 1030   STATUS:REPLACE             
 FORMAT:UNFORMATTED            ACCESS:STREAM              
 ACTION:READWRITE           

      THE LAST TIME STEP WILL BE PRINTED
      THE LAST TIME STEP WILL BE PRINTED
 # File generated by Flopy version 3.9.5 on 01/08/2026 at 22:43:09.

 PROCESSING OC OPTIONS

    BUDGET INFORMATION WILL BE WRITTEN TO:
      UNIT NUMBER: 1031
      FILE NAME: downsc_freyberg.cbc

 OPENED downsc_freyberg.cbc
 FILE TYPE:DATA(BINARY)   UNIT 1031   STATUS:REPLACE             
 FORMAT:UNFORMATTED            ACCESS:STREAM              
 ACTION:READWRITE           

    HEAD INFORMATION WILL BE WRITTEN TO:
      UNIT NUMBER: 1032
      FILE NAME: downsc_freyberg.hds

 OPENED downsc_freyberg.hds
 FILE TYPE:DATA(BINARY)   UNIT 1032   STATUS:REPLACE             
 FORMAT:UNFORMATTED            ACCESS:STREAM              
 ACTION:READWRITE           

 END OF OC OPTIONS

 SFR PACKAGE (SFR_0) STATIC REACH DATA
 ---------------------------------------------------------------------------------------------------------------------------------------
                                                                                                                              UPSTREAM  
   NUMBER   CELLID                  LENGTH       WIDTH        SLOPE         TOP       THICKNESS        HK       ROUGHNESS     FRACTION  
 ---------------------------------------------------------------------------------------------------------------------------------------
     1      (1,1,16)              50.000       1.0000       6.81903E-03  61.159       1.0000       1.0000       3.00000E-02  1.0000     
     2      (1,2,16)              50.000       1.0000       6.81903E-03  60.809       1.0000       1.0000       3.00000E-02  1.0000     
     3      (1,3,16)              50.000       1.0000       6.81903E-03  60.459       1.0000       1.0000       3.00000E-02  1.0000     
     4      (1,4,16)              50.000       1.0000       6.81903E-03  60.110       1.0000       1.0000       3.00000E-02  1.0000     
     5      (1,5,16)              50.000       1.0000       6.81903E-03  59.760       1.0000       1.0000       3.00000E-02  1.0000     
     6      (1,6,16)              50.000       1.0000       6.81903E-03  59.410       1.0000       1.0000       3.00000E-02  1.0000     
     7      (1,7,16)              50.000       1.0000       6.81903E-03  59.061       1.0000       1.0000       3.00000E-02  1.0000     
     8      (1,8,16)              50.000       1.0000       6.81903E-03  58.711       1.0000       1.0000       3.00000E-02  1.0000     
     9      (1,9,16)              50.000       1.0000       6.81903E-03  58.361       1.0000       1.0000       3.00000E-02  1.0000     
     10     (1,10,16)             50.000       1.0000       6.81903E-03  58.012       1.0000       1.0000       3.00000E-02  1.0000     
     11     (1,11,16)             50.000       1.0000       6.81903E-03  57.662       1.0000       1.0000       3.00000E-02  1.0000     
     12     (1,12,16)             50.000       1.0000       6.81903E-03  57.312       1.0000       1.0000       3.00000E-02  1.0000     
     13     (1,13,16)             50.000       1.0000       6.81903E-03  56.963       1.0000       1.0000       3.00000E-02  1.0000     
     14     (1,14,16)             50.000       1.0000       6.81903E-03  56.613       1.0000       1.0000       3.00000E-02  1.0000     
     15     (1,15,16)             50.000       1.0000       6.81903E-03  56.263       1.0000       1.0000       3.00000E-02  1.0000     
     16     (1,16,16)             50.000       1.0000       6.81903E-03  55.913       1.0000       1.0000       3.00000E-02  1.0000     
     17     (1,17,16)             50.000       1.0000       6.81903E-03  55.564       1.0000       1.0000       3.00000E-02  1.0000     
     18     (1,18,16)             50.000       1.0000       6.81903E-03  55.214       1.0000       1.0000       3.00000E-02  1.0000     
     19     (1,19,16)             50.000       1.0000       6.81903E-03  54.864       1.0000       1.0000       3.00000E-02  1.0000     
     20     (1,20,16)             50.000       1.0000       6.81903E-03  54.515       1.0000       1.0000       3.00000E-02  1.0000     
     21     (1,21,16)             50.000       1.0000       6.81903E-03  54.165       1.0000       1.0000       3.00000E-02  1.0000     
     22     (1,22,16)             50.000       1.0000       6.81903E-03  53.815       1.0000       1.0000       3.00000E-02  1.0000     
     23     (1,23,16)             50.000       1.0000       6.81903E-03  53.466       1.0000       1.0000       3.00000E-02  1.0000     
     24     (1,24,16)             50.000       1.0000       6.81903E-03  53.116       1.0000       1.0000       3.00000E-02  1.0000     
     25     (1,25,16)             50.000       1.0000       6.81903E-03  52.766       1.0000       1.0000       3.00000E-02  1.0000     
     26     (1,26,16)             50.000       1.0000       6.81903E-03  52.417       1.0000       1.0000       3.00000E-02  1.0000     
     27     (1,27,16)             50.000       1.0000       6.81903E-03  52.067       1.0000       1.0000       3.00000E-02  1.0000     
     28     (1,28,16)             50.000       1.0000       6.81903E-03  51.717       1.0000       1.0000       3.00000E-02  1.0000     
     29     (1,29,16)             50.000       1.0000       6.81903E-03  51.367       1.0000       1.0000       3.00000E-02  1.0000     
     30     (1,30,16)             50.000       1.0000       6.81903E-03  51.018       1.0000       1.0000       3.00000E-02  1.0000     
     31     (1,31,16)             50.000       1.0000       6.81903E-03  50.668       1.0000       1.0000       3.00000E-02  1.0000     
     32     (1,32,16)             50.000       1.0000       6.81903E-03  50.318       1.0000       1.0000       3.00000E-02  1.0000     
     33     (1,33,16)             50.000       1.0000       6.81903E-03  49.969       1.0000       1.0000       3.00000E-02  1.0000     
     34     (1,34,16)             50.000       1.0000       6.81903E-03  49.619       1.0000       1.0000       3.00000E-02  1.0000     
     35     (1,35,16)             50.000       1.0000       6.81903E-03  49.269       1.0000       1.0000       3.00000E-02  1.0000     
     36     (1,36,16)             50.000       1.0000       6.81903E-03  48.920       1.0000       1.0000       3.00000E-02  1.0000     
     37     (1,37,16)             50.000       1.0000       6.81903E-03  48.570       1.0000       1.0000       3.00000E-02  1.0000     
     38     (1,38,16)             50.000       1.0000       6.81903E-03  48.220       1.0000       1.0000       3.00000E-02  1.0000     
     39     (1,39,16)             50.000       1.0000       6.81903E-03  47.870       1.0000       1.0000       3.00000E-02  1.0000     
     40     (1,40,16)             50.000       1.0000       6.81903E-03  47.521       1.0000       1.0000       3.00000E-02  1.0000     
 ---------------------------------------------------------------------------------------------------------------------------------------



 SFR PACKAGE (SFR_0) STATIC REACH CONNECTION DATA
 --------------------------------
   REACH      CONN 1     CONN 2  
 --------------------------------
     1          2                
     2          1          3     
     3          2          4     
     4          3          5     
     5          4          6     
     6          5          7     
     7          6          8     
     8          7          9     
     9          8          10    
     10         9          11    
     11         10         12    
     12         11         13    
     13         12         14    
     14         13         15    
     15         14         16    
     16         15         17    
     17         16         18    
     18         17         19    
     19         18         20    
     20         19         21    
     21         20         22    
     22         21         23    
     23         22         24    
     24         23         25    
     25         24         26    
     26         25         27    
     27         26         28    
     28         27         29    
     29         28         30    
     30         29         31    
     31         30         32    
     32         31         33    
     33         32         34    
     34         33         35    
     35         34         36    
     36         35         37    
     37         36         38    
     38         37         39    
     39         38         40    
     40         39               
 --------------------------------



 SFR PACKAGE (SFR_0) STATIC UPSTREAM REACH CONNECTION DATA
 ---------------------
             UPSTREAM 
   REACH      CONN 1  
 ---------------------
     1                
     2          1     
     3          2     
     4          3     
     5          4     
     6          5     
     7          6     
     8          7     
     9          8     
     10         9     
     11         10    
     12         11    
     13         12    
     14         13    
     15         14    
     16         15    
     17         16    
     18         17    
     19         18    
     20         19    
     21         20    
     22         21    
     23         22    
     24         23    
     25         24    
     26         25    
     27         26    
     28         27    
     29         28    
     30         29    
     31         30    
     32         31    
     33         32    
     34         33    
     35         34    
     36         35    
     37         36    
     38         37    
     39         38    
     40         39    
 ---------------------



 SFR PACKAGE (SFR_0) STATIC DOWNSTREAM REACH CONNECTION DATA
 ---------------------
            DOWNSTREAM
   REACH      CONN 1  
 ---------------------
     1          2     
     2          3     
     3          4     
     4          5     
     5          6     
     6          7     
     7          8     
     8          9     
     9          10    
     10         11    
     11         12    
     12         13    
     13         14    
     14         15    
     15         16    
     16         17    
     17         18    
     18         19    
     19         20    
     20         21    
     21         22    
     22         23    
     23         24    
     24         25    
     25         26    
     26         27    
     27         28    
     28         29    
     29         30    
     30         31    
     31         32    
     32         33    
     33         34    
     34         35    
     35         36    
     36         37    
     37         38    
     38         39    
     39         40    
     40               
 ---------------------



start timestep kper="1" kstp="1" mode="normal"


 BEGIN READING OUTPUT CONTROL FOR STRESS PERIOD 1
      ALL TIME STEPS WILL BE SAVED
      ALL TIME STEPS WILL BE SAVED
      ALL TIME STEPS WILL BE PRINTED

 END READING OUTPUT CONTROL FOR STRESS PERIOD 1


 PROCESSING STORAGE PERIOD DATA
 END PROCESSING STORAGE PERIOD DATA


 STRESS PERIOD 1 IS STEADY-STATE


 OPENED downsc_freyberg.wel_stress_period_data_2.txt
 FILE TYPE:OPEN/CLOSE   UNIT 1033   STATUS:OLD                 
 FORMAT:FORMATTED              ACCESS:SEQUENTIAL          
 ACTION:READ                


 REUSING WELS FROM LAST STRESS PERIOD

 OPENED downsc_freyberg.ghb_stress_period_data_1.txt
 FILE TYPE:OPEN/CLOSE   UNIT 1034   STATUS:OLD                 
 FORMAT:FORMATTED              ACCESS:SEQUENTIAL          
 ACTION:READ                


 OPENED downsc_freyberg.rcha_recharge_1.txt
 FILE TYPE:OPEN/CLOSE   UNIT 1035   STATUS:OLD                 
 FORMAT:FORMATTED              ACCESS:SEQUENTIAL          
 ACTION:READ                


 OPENED downsc_freyberg.sfr_perioddata_1.txt
 FILE TYPE:OPEN/CLOSE   UNIT 1036   STATUS:OLD                 
 FORMAT:FORMATTED              ACCESS:SEQUENTIAL          
 ACTION:READ                


 SFR PACKAGE (SFR_0) DATA FOR PERIOD      1
 ---------------------------------------------------------------
   NUMBER   KEYWORD                  VALUE 1         VALUE 2    
 ---------------------------------------------------------------
     1      INFLOW                    500.0                     
 ---------------------------------------------------------------



 SFR PACKAGE (SFR_0) CONNECTED REACH UPSTREAM FRACTION DATA
 ----------------------------------
            DOWNSTREAM             
   REACH     REACH 1    FRACTION 1 
 ----------------------------------
     1          2       1.0000     
     2          3       1.0000     
     3          4       1.0000     
     4          5       1.0000     
     5          6       1.0000     
     6          7       1.0000     
     7          8       1.0000     
     8          9       1.0000     
     9          10      1.0000     
     10         11      1.0000     
     11         12      1.0000     
     12         13      1.0000     
     13         14      1.0000     
     14         15      1.0000     
     15         16      1.0000     
     16         17      1.0000     
     17         18      1.0000     
     18         19      1.0000     
     19         20      1.0000     
     20         21      1.0000     
     21         22      1.0000     
     22         23      1.0000     
     23         24      1.0000     
     24         25      1.0000     
     25         26      1.0000     
     26         27      1.0000     
     27         28      1.0000     
     28         29      1.0000     
     29         30      1.0000     
     30         31      1.0000     
     31         32      1.0000     
     32         33      1.0000     
     33         34      1.0000     
     34         35      1.0000     
     35         36      1.0000     
     36         37      1.0000     
     37         38      1.0000     
     38         39      1.0000     
     39         40      1.0000     
     40                            
 ----------------------------------


 UBDSV1 SAVING           STO-SS ON UNIT   1031 AT TIME STEP      1, STRESS PERIOD      1
 UBDSV1 SAVING           STO-SY ON UNIT   1031 AT TIME STEP      1, STRESS PERIOD      1
 UBDSV1 SAVING     FLOW-JA-FACE ON UNIT   1031 AT TIME STEP      1, STRESS PERIOD      1
 UBDSV06 SAVING       DATA-SPDIS IN MODEL DOWNSC_FREYBERG  PACKAGE NPF             CONNECTED TO MODEL DOWNSC_FREYBERG  PACKAGE NPF              ON UNIT   1031 AT TIME STEP      1, STRESS PERIOD      1
 UBDSV06 SAVING              WEL IN MODEL DOWNSC_FREYBERG  PACKAGE DOWNSC_FREYBERG CONNECTED TO MODEL DOWNSC_FREYBERG  PACKAGE WEL_0            ON UNIT   1031 AT TIME STEP      1, STRESS PERIOD      1
 UBDSV06 SAVING              GHB IN MODEL DOWNSC_FREYBERG  PACKAGE DOWNSC_FREYBERG CONNECTED TO MODEL DOWNSC_FREYBERG  PACKAGE GHB_0            ON UNIT   1031 AT TIME STEP      1, STRESS PERIOD      1
 UBDSV06 SAVING             RCHA IN MODEL DOWNSC_FREYBERG  PACKAGE DOWNSC_FREYBERG CONNECTED TO MODEL DOWNSC_FREYBERG  PACKAGE RCHA_0           ON UNIT   1031 AT TIME STEP      1, STRESS PERIOD      1
 UBDSV06 SAVING              SFR IN MODEL DOWNSC_FREYBERG  PACKAGE DOWNSC_FREYBERG CONNECTED TO MODEL DOWNSC_FREYBERG  PACKAGE SFR_0            ON UNIT   1031 AT TIME STEP      1, STRESS PERIOD      1

 HEAD WILL BE SAVED ON UNIT 1032 AT END OF TIME STEP    1, STRESS PERIOD    1


  SFR_0 BUDGET FOR ENTIRE MODEL AT END OF TIME STEP    1, STRESS PERIOD   1
  ------------------------------------------------------------------------------

     CUMULATIVE SFR_0      L**3       RATES FOR THIS TIME STEP      L**3/T
     ------------------                 ------------------------

           IN:                                      IN:
           ---                                      ---
                 GWF =     5294210.8375                   GWF =        1449.4759
            RAINFALL =           0.0000              RAINFALL =           0.0000
         EVAPORATION =           0.0000           EVAPORATION =           0.0000
              RUNOFF =           0.0000                RUNOFF =           0.0000
          EXT-INFLOW =     1826250.0000            EXT-INFLOW =         500.0000
         EXT-OUTFLOW =           0.0000           EXT-OUTFLOW =           0.0000
             STORAGE =           0.0000               STORAGE =           0.0000

            TOTAL IN =     7120460.8375              TOTAL IN =        1949.4759

          OUT:                                     OUT:
          ----                                     ----
                 GWF =      986202.2134                   GWF =         270.0075
            RAINFALL =           0.0000              RAINFALL =           0.0000
         EVAPORATION =           0.0000           EVAPORATION =           0.0000
              RUNOFF =           0.0000                RUNOFF =           0.0000
          EXT-INFLOW =           0.0000            EXT-INFLOW =           0.0000
         EXT-OUTFLOW =     6134258.6241           EXT-OUTFLOW =        1679.4685
             STORAGE =           0.0000               STORAGE =           0.0000

           TOTAL OUT =     7120460.8375             TOTAL OUT =        1949.4759

            IN - OUT =       9.3132E-10              IN - OUT =       2.2737E-13

 PERCENT DISCREPANCY =           0.00     PERCENT DISCREPANCY =           0.00



  VOLUME BUDGET FOR ENTIRE MODEL AT END OF TIME STEP    1, STRESS PERIOD   1
  ---------------------------------------------------------------------------------------------------

     CUMULATIVE VOLUME      L**3       RATES FOR THIS TIME STEP      L**3/T          PACKAGE NAME    
     ------------------                 ------------------------                     ----------------

           IN:                                      IN:
           ---                                      ---
              STO-SS =           0.0000                STO-SS =           0.0000     STORAGE                          
              STO-SY =           0.0000                STO-SY =           0.0000     STORAGE                          
                 WEL =           0.0000                   WEL =           0.0000     WEL_0                            
                 GHB =           0.0000                   GHB =           0.0000     GHB_0                            
                RCHA =     9795123.4691                  RCHA =        2681.7587     RCHA_0                           
                 SFR =      987770.6430                   SFR =         270.4369     SFR_0                            

            TOTAL IN =    10782894.1121              TOTAL IN =        2952.1955

          OUT:                                     OUT:
          ----                                     ----
              STO-SS =           0.0000                STO-SS =           0.0000     STORAGE                          
              STO-SY =           0.0000                STO-SY =           0.0000     STORAGE                          
                 WEL =           0.0000                   WEL =           0.0000     WEL_0                            
                 GHB =     5514156.4526                   GHB =        1509.6938     GHB_0                            
                RCHA =           0.0000                  RCHA =           0.0000     RCHA_0                           
                 SFR =     5289902.5078                   SFR =        1448.2964     SFR_0                            

           TOTAL OUT =    10804058.9604             TOTAL OUT =        2957.9901

            IN - OUT =      -21164.8483              IN - OUT =          -5.7946

 PERCENT DISCREPANCY =          -0.20     PERCENT DISCREPANCY =          -0.20




         TIME SUMMARY AT END OF TIME STEP    1 IN STRESS PERIOD    1
                    SECONDS     MINUTES      HOURS       DAYS        YEARS
                    -----------------------------------------------------------
   TIME STEP LENGTH 3.15576E+08 5.25960E+06  87660.      3652.5      10.000    
 STRESS PERIOD TIME 3.15576E+08 5.25960E+06  87660.      3652.5      10.000    
         TOTAL TIME 3.15576E+08 5.25960E+06  87660.      3652.5      10.000    


end timestep


start timestep kper="2" kstp="1" mode="normal"


 END OF FILE DETECTED IN OUTPUT CONTROL.
 CURRENT OUTPUT CONTROL SETTINGS WILL BE 
 REPEATED UNTIL THE END OF THE SIMULATION.

 OUTPUT CONTROL FOR STRESS PERIOD 2 IS REPEATED USING SETTINGS FROM A PREVIOUS STRESS PERIOD.


 PROCESSING STORAGE PERIOD DATA
 END PROCESSING STORAGE PERIOD DATA


 STRESS PERIOD 2 IS TRANSIENT

 ---------------------------------------------------
  WEL NO.    LAYER    ROW     COL     STRESS RATE   
 ---------------------------------------------------
     1         1      10      17    -150.000000     
     2         1      12      14    -150.000000     
     3         1      21      15    -150.000000     
     4         1      27      11    -150.000000     
     5         1      30       7    -150.000000     
     6         1      35      13    -150.000000     
     7         1      25       5     0.00000000     
 ---------------------------------------------------



 REUSING GHBS FROM LAST STRESS PERIOD

 OPENED downsc_freyberg.rcha_recharge_2.txt
 FILE TYPE:OPEN/CLOSE   UNIT 1037   STATUS:OLD                 
 FORMAT:FORMATTED              ACCESS:SEQUENTIAL          
 ACTION:READ                


 REUSING SFRS FROM LAST STRESS PERIOD
 UBDSV1 SAVING           STO-SS ON UNIT   1031 AT TIME STEP      1, STRESS PERIOD      2
 UBDSV1 SAVING           STO-SY ON UNIT   1031 AT TIME STEP      1, STRESS PERIOD      2
 UBDSV1 SAVING     FLOW-JA-FACE ON UNIT   1031 AT TIME STEP      1, STRESS PERIOD      2
 UBDSV06 SAVING       DATA-SPDIS IN MODEL DOWNSC_FREYBERG  PACKAGE NPF             CONNECTED TO MODEL DOWNSC_FREYBERG  PACKAGE NPF              ON UNIT   1031 AT TIME STEP      1, STRESS PERIOD      2
 UBDSV06 SAVING              WEL IN MODEL DOWNSC_FREYBERG  PACKAGE DOWNSC_FREYBERG CONNECTED TO MODEL DOWNSC_FREYBERG  PACKAGE WEL_0            ON UNIT   1031 AT TIME STEP      1, STRESS PERIOD      2
 UBDSV06 SAVING              GHB IN MODEL DOWNSC_FREYBERG  PACKAGE DOWNSC_FREYBERG CONNECTED TO MODEL DOWNSC_FREYBERG  PACKAGE GHB_0            ON UNIT   1031 AT TIME STEP      1, STRESS PERIOD      2
 UBDSV06 SAVING             RCHA IN MODEL DOWNSC_FREYBERG  PACKAGE DOWNSC_FREYBERG CONNECTED TO MODEL DOWNSC_FREYBERG  PACKAGE RCHA_0           ON UNIT   1031 AT TIME STEP      1, STRESS PERIOD      2
 UBDSV06 SAVING              SFR IN MODEL DOWNSC_FREYBERG  PACKAGE DOWNSC_FREYBERG CONNECTED TO MODEL DOWNSC_FREYBERG  PACKAGE SFR_0            ON UNIT   1031 AT TIME STEP      1, STRESS PERIOD      2

 WEL PACKAGE (WEL_0) FLOW RATES   PERIOD      2   STEP        1
 -----------------------------------------------
   NUMBER   CELLID                    RATE      
 -----------------------------------------------
     1      (1,10,17)            -150.00000     
     2      (1,12,14)            -150.00000     
     3      (1,21,15)            -150.00000     
     4      (1,27,11)            -150.00000     
     5      (1,30,7)             -150.00000     
     6      (1,35,13)            -150.00000     
     7      (1,25,5)              0.0000000     
 -----------------------------------------------




 HEAD WILL BE SAVED ON UNIT 1032 AT END OF TIME STEP    1, STRESS PERIOD    2


  SFR_0 BUDGET FOR ENTIRE MODEL AT END OF TIME STEP    1, STRESS PERIOD   2
  ------------------------------------------------------------------------------

     CUMULATIVE SFR_0      L**3       RATES FOR THIS TIME STEP      L**3/T
     ------------------                 ------------------------

           IN:                                      IN:
           ---                                      ---
                 GWF =     5337346.2463                   GWF =        1391.4648
            RAINFALL =           0.0000              RAINFALL =           0.0000
         EVAPORATION =           0.0000           EVAPORATION =           0.0000
              RUNOFF =           0.0000                RUNOFF =           0.0000
          EXT-INFLOW =     1841750.0000            EXT-INFLOW =         500.0000
         EXT-OUTFLOW =           0.0000           EXT-OUTFLOW =           0.0000
             STORAGE =           0.0000               STORAGE =           0.0000

            TOTAL IN =     7179096.2463              TOTAL IN =        1891.4648

          OUT:                                     OUT:
          ----                                     ----
                 GWF =      995042.5760                   GWF =         285.1730
            RAINFALL =           0.0000              RAINFALL =           0.0000
         EVAPORATION =           0.0000           EVAPORATION =           0.0000
              RUNOFF =           0.0000                RUNOFF =           0.0000
          EXT-INFLOW =           0.0000            EXT-INFLOW =           0.0000
         EXT-OUTFLOW =     6184053.6703           EXT-OUTFLOW =        1606.2918
             STORAGE =           0.0000               STORAGE =           0.0000

           TOTAL OUT =     7179096.2463             TOTAL OUT =        1891.4648

            IN - OUT =       9.3132E-10              IN - OUT =      -4.5475E-13

 PERCENT DISCREPANCY =           0.00     PERCENT DISCREPANCY =          -0.00



  VOLUME BUDGET FOR ENTIRE MODEL AT END OF TIME STEP    1, STRESS PERIOD   2
  ---------------------------------------------------------------------------------------------------

     CUMULATIVE VOLUME      L**3       RATES FOR THIS TIME STEP      L**3/T          PACKAGE NAME    
     ------------------                 ------------------------                     ----------------

           IN:                                      IN:
           ---                                      ---
              STO-SS =           2.2542                STO-SS =       7.2716E-02     STORAGE                          
              STO-SY =       13786.0668                STO-SY =         444.7118     STORAGE                          
                 WEL =           0.0000                   WEL =           0.0000     WEL_0                            
                 GHB =           0.0000                   GHB =           0.0000     GHB_0                            
                RCHA =     9892623.4105                  RCHA =        3145.1594     RCHA_0                           
                 SFR =      996620.9005                   SFR =         285.4922     SFR_0                            

            TOTAL IN =    10903032.6319              TOTAL IN =        3875.4361

          OUT:                                     OUT:
          ----                                     ----
              STO-SS =           0.1680                STO-SS =       5.4197E-03     STORAGE                          
              STO-SY =        2667.9971                STO-SY =          86.0644     STORAGE                          
                 WEL =       27900.0000                   WEL =         900.0000     WEL_0                            
                 GHB =     5560727.4219                   GHB =        1502.2893     GHB_0                            
                RCHA =           0.0000                  RCHA =           0.0000     RCHA_0                           
                 SFR =     5332972.5527                   SFR =        1389.3563     SFR_0                            

           TOTAL OUT =    10924268.1397             TOTAL OUT =        3877.7155

            IN - OUT =      -21235.5078              IN - OUT =          -2.2793

 PERCENT DISCREPANCY =          -0.19     PERCENT DISCREPANCY =          -0.06




         TIME SUMMARY AT END OF TIME STEP    1 IN STRESS PERIOD    2
                    SECONDS     MINUTES      HOURS       DAYS        YEARS
                    -----------------------------------------------------------
   TIME STEP LENGTH 2.67840E+06  44640.      744.00      31.000     8.48734E-02
 STRESS PERIOD TIME 2.67840E+06  44640.      744.00      31.000     8.48734E-02
         TOTAL TIME 3.18254E+08 5.30424E+06  88404.      3683.5      10.085    


end timestep


start timestep kper="3" kstp="1" mode="normal"


 OUTPUT CONTROL FOR STRESS PERIOD 3 IS REPEATED USING SETTINGS FROM A PREVIOUS STRESS PERIOD.


 PROCESSING STORAGE PERIOD DATA
 END PROCESSING STORAGE PERIOD DATA


 STRESS PERIOD 3 IS TRANSIENT


 OPENED downsc_freyberg.wel_stress_period_data_3.txt
 FILE TYPE:OPEN/CLOSE   UNIT 1038   STATUS:OLD                 
 FORMAT:FORMATTED              ACCESS:SEQUENTIAL          
 ACTION:READ                

 ---------------------------------------------------
  WEL NO.    LAYER    ROW     COL     STRESS RATE   
 ---------------------------------------------------
     1         1      10      17    -300.000000     
     2         1      12      14    -300.000000     
     3         1      21      15    -300.000000     
     4         1      27      11    -300.000000     
     5         1      30       7    -300.000000     
     6         1      35      13    -300.000000     
     7         1      25       5     0.00000000     
 ---------------------------------------------------



 REUSING GHBS FROM LAST STRESS PERIOD

 OPENED downsc_freyberg.rcha_recharge_3.txt
 FILE TYPE:OPEN/CLOSE   UNIT 1039   STATUS:OLD                 
 FORMAT:FORMATTED              ACCESS:SEQUENTIAL          
 ACTION:READ                


 REUSING SFRS FROM LAST STRESS PERIOD
 UBDSV1 SAVING           STO-SS ON UNIT   1031 AT TIME STEP      1, STRESS PERIOD      3
 UBDSV1 SAVING           STO-SY ON UNIT   1031 AT TIME STEP      1, STRESS PERIOD      3
 UBDSV1 SAVING     FLOW-JA-FACE ON UNIT   1031 AT TIME STEP      1, STRESS PERIOD      3
 UBDSV06 SAVING       DATA-SPDIS IN MODEL DOWNSC_FREYBERG  PACKAGE NPF             CONNECTED TO MODEL DOWNSC_FREYBERG  PACKAGE NPF              ON UNIT   1031 AT TIME STEP      1, STRESS PERIOD      3
 UBDSV06 SAVING              WEL IN MODEL DOWNSC_FREYBERG  PACKAGE DOWNSC_FREYBERG CONNECTED TO MODEL DOWNSC_FREYBERG  PACKAGE WEL_0            ON UNIT   1031 AT TIME STEP      1, STRESS PERIOD      3
 UBDSV06 SAVING              GHB IN MODEL DOWNSC_FREYBERG  PACKAGE DOWNSC_FREYBERG CONNECTED TO MODEL DOWNSC_FREYBERG  PACKAGE GHB_0            ON UNIT   1031 AT TIME STEP      1, STRESS PERIOD      3
 UBDSV06 SAVING             RCHA IN MODEL DOWNSC_FREYBERG  PACKAGE DOWNSC_FREYBERG CONNECTED TO MODEL DOWNSC_FREYBERG  PACKAGE RCHA_0           ON UNIT   1031 AT TIME STEP      1, STRESS PERIOD      3
 UBDSV06 SAVING              SFR IN MODEL DOWNSC_FREYBERG  PACKAGE DOWNSC_FREYBERG CONNECTED TO MODEL DOWNSC_FREYBERG  PACKAGE SFR_0            ON UNIT   1031 AT TIME STEP      1, STRESS PERIOD      3

 WEL PACKAGE (WEL_0) FLOW RATES   PERIOD      3   STEP        1
 -----------------------------------------------
   NUMBER   CELLID                    RATE      
 -----------------------------------------------
     1      (1,10,17)            -300.00000     
     2      (1,12,14)            -300.00000     
     3      (1,21,15)            -300.00000     
     4      (1,27,11)            -300.00000     
     5      (1,30,7)             -300.00000     
     6      (1,35,13)            -300.00000     
     7      (1,25,5)              0.0000000     
 -----------------------------------------------




 HEAD WILL BE SAVED ON UNIT 1032 AT END OF TIME STEP    1, STRESS PERIOD    3


  SFR_0 BUDGET FOR ENTIRE MODEL AT END OF TIME STEP    1, STRESS PERIOD   3
  ------------------------------------------------------------------------------

     CUMULATIVE SFR_0      L**3       RATES FOR THIS TIME STEP      L**3/T
     ------------------                 ------------------------

           IN:                                      IN:
           ---                                      ---
                 GWF =     5376396.7953                   GWF =        1346.5707
            RAINFALL =           0.0000              RAINFALL =           0.0000
         EVAPORATION =           0.0000           EVAPORATION =           0.0000
              RUNOFF =           0.0000                RUNOFF =           0.0000
          EXT-INFLOW =     1856250.0000            EXT-INFLOW =         500.0000
         EXT-OUTFLOW =           0.0000           EXT-OUTFLOW =           0.0000
             STORAGE =           0.0000               STORAGE =           0.0000

            TOTAL IN =     7232646.7953              TOTAL IN =        1846.5707

          OUT:                                     OUT:
          ----                                     ----
                 GWF =     1003779.5627                   GWF =         301.2754
            RAINFALL =           0.0000              RAINFALL =           0.0000
         EVAPORATION =           0.0000           EVAPORATION =           0.0000
              RUNOFF =           0.0000                RUNOFF =           0.0000
          EXT-INFLOW =           0.0000            EXT-INFLOW =           0.0000
         EXT-OUTFLOW =     6228867.2326           EXT-OUTFLOW =        1545.2953
             STORAGE =           0.0000               STORAGE =           0.0000

           TOTAL OUT =     7232646.7953             TOTAL OUT =        1846.5707

            IN - OUT =       9.3132E-10              IN - OUT =       2.2737E-13

 PERCENT DISCREPANCY =           0.00     PERCENT DISCREPANCY =           0.00



  VOLUME BUDGET FOR ENTIRE MODEL AT END OF TIME STEP    1, STRESS PERIOD   3
  ---------------------------------------------------------------------------------------------------

     CUMULATIVE VOLUME      L**3       RATES FOR THIS TIME STEP      L**3/T          PACKAGE NAME    
     ------------------                 ------------------------                     ----------------

           IN:                                      IN:
           ---                                      ---
              STO-SS =           4.2716                STO-SS =       6.9566E-02     STORAGE                          
              STO-SY =       26139.8093                STO-SY =         425.9911     STORAGE                          
                 WEL =           0.0000                   WEL =           0.0000     WEL_0                            
                 GHB =           0.0000                   GHB =           0.0000     GHB_0                            
                RCHA =    10016448.6270                  RCHA =        4269.8350     RCHA_0                           
                 SFR =     1005361.5396                   SFR =         301.4013     SFR_0                            

            TOTAL IN =    11047954.2474              TOTAL IN =        4997.2971

          OUT:                                     OUT:
          ----                                     ----
              STO-SS =           0.9131                STO-SS =       2.5692E-02     STORAGE                          
              STO-SY =       12802.8934                STO-SY =         349.4792     STORAGE                          
                 WEL =       80100.0000                   WEL =        1800.0000     WEL_0                            
                 GHB =     5604373.8275                   GHB =        1505.0485     GHB_0                            
                RCHA =           0.0000                  RCHA =           0.0000     RCHA_0                           
                 SFR =     5371973.0207                   SFR =        1344.8437     SFR_0                            

           TOTAL OUT =    11069250.6547             TOTAL OUT =        4999.3971

            IN - OUT =      -21296.4072              IN - OUT =          -2.1000

 PERCENT DISCREPANCY =          -0.19     PERCENT DISCREPANCY =          -0.04




         TIME SUMMARY AT END OF TIME STEP    1 IN STRESS PERIOD    3
                    SECONDS     MINUTES      HOURS       DAYS        YEARS
                    -----------------------------------------------------------
   TIME STEP LENGTH 2.50560E+06  41760.      696.00      29.000     7.93977E-02
 STRESS PERIOD TIME 2.50560E+06  41760.      696.00      29.000     7.93977E-02
         TOTAL TIME 3.20760E+08 5.34600E+06  89100.      3712.5      10.164    


end timestep


start timestep kper="4" kstp="1" mode="normal"


 OUTPUT CONTROL FOR STRESS PERIOD 4 IS REPEATED USING SETTINGS FROM A PREVIOUS STRESS PERIOD.


 PROCESSING STORAGE PERIOD DATA
 END PROCESSING STORAGE PERIOD DATA


 STRESS PERIOD 4 IS TRANSIENT


 OPENED downsc_freyberg.wel_stress_period_data_4.txt
 FILE TYPE:OPEN/CLOSE   UNIT 1040   STATUS:OLD                 
 FORMAT:FORMATTED              ACCESS:SEQUENTIAL          
 ACTION:READ                

 ---------------------------------------------------
  WEL NO.    LAYER    ROW     COL     STRESS RATE   
 ---------------------------------------------------
     1         1      10      17    -300.000000     
     2         1      12      14    -300.000000     
     3         1      21      15    -300.000000     
     4         1      27      11    -300.000000     
     5         1      30       7    -300.000000     
     6         1      35      13    -300.000000     
     7         1      25       5     0.00000000     
 ---------------------------------------------------



 REUSING GHBS FROM LAST STRESS PERIOD

 OPENED downsc_freyberg.rcha_recharge_4.txt
 FILE TYPE:OPEN/CLOSE   UNIT 1041   STATUS:OLD                 
 FORMAT:FORMATTED              ACCESS:SEQUENTIAL          
 ACTION:READ                


 REUSING SFRS FROM LAST STRESS PERIOD
 UBDSV1 SAVING           STO-SS ON UNIT   1031 AT TIME STEP      1, STRESS PERIOD      4
 UBDSV1 SAVING           STO-SY ON UNIT   1031 AT TIME STEP      1, STRESS PERIOD      4
 UBDSV1 SAVING     FLOW-JA-FACE ON UNIT   1031 AT TIME STEP      1, STRESS PERIOD      4
 UBDSV06 SAVING       DATA-SPDIS IN MODEL DOWNSC_FREYBERG  PACKAGE NPF             CONNECTED TO MODEL DOWNSC_FREYBERG  PACKAGE NPF              ON UNIT   1031 AT TIME STEP      1, STRESS PERIOD      4
 UBDSV06 SAVING              WEL IN MODEL DOWNSC_FREYBERG  PACKAGE DOWNSC_FREYBERG CONNECTED TO MODEL DOWNSC_FREYBERG  PACKAGE WEL_0            ON UNIT   1031 AT TIME STEP      1, STRESS PERIOD      4
 UBDSV06 SAVING              GHB IN MODEL DOWNSC_FREYBERG  PACKAGE DOWNSC_FREYBERG CONNECTED TO MODEL DOWNSC_FREYBERG  PACKAGE GHB_0            ON UNIT   1031 AT TIME STEP      1, STRESS PERIOD      4
 UBDSV06 SAVING             RCHA IN MODEL DOWNSC_FREYBERG  PACKAGE DOWNSC_FREYBERG CONNECTED TO MODEL DOWNSC_FREYBERG  PACKAGE RCHA_0           ON UNIT   1031 AT TIME STEP      1, STRESS PERIOD      4
 UBDSV06 SAVING              SFR IN MODEL DOWNSC_FREYBERG  PACKAGE DOWNSC_FREYBERG CONNECTED TO MODEL DOWNSC_FREYBERG  PACKAGE SFR_0            ON UNIT   1031 AT TIME STEP      1, STRESS PERIOD      4

 WEL PACKAGE (WEL_0) FLOW RATES   PERIOD      4   STEP        1
 -----------------------------------------------
   NUMBER   CELLID                    RATE      
 -----------------------------------------------
     1      (1,10,17)            -300.00000     
     2      (1,12,14)            -300.00000     
     3      (1,21,15)            -300.00000     
     4      (1,27,11)            -300.00000     
     5      (1,30,7)             -300.00000     
     6      (1,35,13)            -300.00000     
     7      (1,25,5)              0.0000000     
 -----------------------------------------------




 HEAD WILL BE SAVED ON UNIT 1032 AT END OF TIME STEP    1, STRESS PERIOD    4


  SFR_0 BUDGET FOR ENTIRE MODEL AT END OF TIME STEP    1, STRESS PERIOD   4
  ------------------------------------------------------------------------------

     CUMULATIVE SFR_0      L**3       RATES FOR THIS TIME STEP      L**3/T
     ------------------                 ------------------------

           IN:                                      IN:
           ---                                      ---
                 GWF =     5418497.7697                   GWF =        1358.0959
            RAINFALL =           0.0000              RAINFALL =           0.0000
         EVAPORATION =           0.0000           EVAPORATION =           0.0000
              RUNOFF =           0.0000                RUNOFF =           0.0000
          EXT-INFLOW =     1871750.0000            EXT-INFLOW =         500.0000
         EXT-OUTFLOW =           0.0000           EXT-OUTFLOW =           0.0000
             STORAGE =           0.0000               STORAGE =           0.0000

            TOTAL IN =     7290247.7697              TOTAL IN =        1858.0959

          OUT:                                     OUT:
          ----                                     ----
                 GWF =     1012741.1840                   GWF =         289.0846
            RAINFALL =           0.0000              RAINFALL =           0.0000
         EVAPORATION =           0.0000           EVAPORATION =           0.0000
              RUNOFF =           0.0000                RUNOFF =           0.0000
          EXT-INFLOW =           0.0000            EXT-INFLOW =           0.0000
         EXT-OUTFLOW =     6277506.5858           EXT-OUTFLOW =        1569.0114
             STORAGE =           0.0000               STORAGE =           0.0000

           TOTAL OUT =     7290247.7697             TOTAL OUT =        1858.0959

            IN - OUT =       9.3132E-10              IN - OUT =      -2.2737E-13

 PERCENT DISCREPANCY =           0.00     PERCENT DISCREPANCY =          -0.00



  VOLUME BUDGET FOR ENTIRE MODEL AT END OF TIME STEP    1, STRESS PERIOD   4
  ---------------------------------------------------------------------------------------------------

     CUMULATIVE VOLUME      L**3       RATES FOR THIS TIME STEP      L**3/T          PACKAGE NAME    
     ------------------                 ------------------------                     ----------------

           IN:                                      IN:
           ---                                      ---
              STO-SS =           4.3281                STO-SS =       1.8210E-03     STORAGE                          
              STO-SY =       26544.2526                STO-SY =          13.0466     STORAGE                          
                 WEL =           0.0000                   WEL =           0.0000     WEL_0                            
                 GHB =           0.0000                   GHB =           0.0000     GHB_0                            
                RCHA =    10171168.9682                  RCHA =        4990.9788     RCHA_0                           
                 SFR =     1014314.1924                   SFR =         288.7953     SFR_0                            

            TOTAL IN =    11212031.7413              TOTAL IN =        5292.8224

          OUT:                                     OUT:
          ----                                     ----
              STO-SS =           2.6253                STO-SS =       5.5235E-02     STORAGE                          
              STO-SY =       31807.8328                STO-SY =         613.0626     STORAGE                          
                 WEL =      135900.0000                   WEL =        1800.0000     WEL_0                            
                 GHB =     5651502.2812                   GHB =        1520.2727     GHB_0                            
                RCHA =           0.0000                  RCHA =           0.0000     RCHA_0                           
                 SFR =     5414086.8474                   SFR =        1358.5105     SFR_0                            

           TOTAL OUT =    11233299.5867             TOTAL OUT =        5291.9010

            IN - OUT =      -21267.8454              IN - OUT =           0.9213

 PERCENT DISCREPANCY =          -0.19     PERCENT DISCREPANCY =           0.02




         TIME SUMMARY AT END OF TIME STEP    1 IN STRESS PERIOD    4
                    SECONDS     MINUTES      HOURS       DAYS        YEARS
                    -----------------------------------------------------------
   TIME STEP LENGTH 2.67840E+06  44640.      744.00      31.000     8.48734E-02
 STRESS PERIOD TIME 2.67840E+06  44640.      744.00      31.000     8.48734E-02
         TOTAL TIME 3.23438E+08 5.39064E+06  89844.      3743.5      10.249    


end timestep


start timestep kper="5" kstp="1" mode="normal"


 OUTPUT CONTROL FOR STRESS PERIOD 5 IS REPEATED USING SETTINGS FROM A PREVIOUS STRESS PERIOD.


 PROCESSING STORAGE PERIOD DATA
 END PROCESSING STORAGE PERIOD DATA


 STRESS PERIOD 5 IS TRANSIENT


 OPENED downsc_freyberg.wel_stress_period_data_5.txt
 FILE TYPE:OPEN/CLOSE   UNIT 1042   STATUS:OLD                 
 FORMAT:FORMATTED              ACCESS:SEQUENTIAL          
 ACTION:READ                

 ---------------------------------------------------
  WEL NO.    LAYER    ROW     COL     STRESS RATE   
 ---------------------------------------------------
     1         1      10      17    -300.000000     
     2         1      12      14    -300.000000     
     3         1      21      15    -300.000000     
     4         1      27      11    -300.000000     
     5         1      30       7    -300.000000     
     6         1      35      13    -300.000000     
     7         1      25       5     0.00000000     
 ---------------------------------------------------



 REUSING GHBS FROM LAST STRESS PERIOD

 OPENED downsc_freyberg.rcha_recharge_5.txt
 FILE TYPE:OPEN/CLOSE   UNIT 1043   STATUS:OLD                 
 FORMAT:FORMATTED              ACCESS:SEQUENTIAL          
 ACTION:READ                


 REUSING SFRS FROM LAST STRESS PERIOD
 UBDSV1 SAVING           STO-SS ON UNIT   1031 AT TIME STEP      1, STRESS PERIOD      5
 UBDSV1 SAVING           STO-SY ON UNIT   1031 AT TIME STEP      1, STRESS PERIOD      5
 UBDSV1 SAVING     FLOW-JA-FACE ON UNIT   1031 AT TIME STEP      1, STRESS PERIOD      5
 UBDSV06 SAVING       DATA-SPDIS IN MODEL DOWNSC_FREYBERG  PACKAGE NPF             CONNECTED TO MODEL DOWNSC_FREYBERG  PACKAGE NPF              ON UNIT   1031 AT TIME STEP      1, STRESS PERIOD      5
 UBDSV06 SAVING              WEL IN MODEL DOWNSC_FREYBERG  PACKAGE DOWNSC_FREYBERG CONNECTED TO MODEL DOWNSC_FREYBERG  PACKAGE WEL_0            ON UNIT   1031 AT TIME STEP      1, STRESS PERIOD      5
 UBDSV06 SAVING              GHB IN MODEL DOWNSC_FREYBERG  PACKAGE DOWNSC_FREYBERG CONNECTED TO MODEL DOWNSC_FREYBERG  PACKAGE GHB_0            ON UNIT   1031 AT TIME STEP      1, STRESS PERIOD      5
 UBDSV06 SAVING             RCHA IN MODEL DOWNSC_FREYBERG  PACKAGE DOWNSC_FREYBERG CONNECTED TO MODEL DOWNSC_FREYBERG  PACKAGE RCHA_0           ON UNIT   1031 AT TIME STEP      1, STRESS PERIOD      5
 UBDSV06 SAVING              SFR IN MODEL DOWNSC_FREYBERG  PACKAGE DOWNSC_FREYBERG CONNECTED TO MODEL DOWNSC_FREYBERG  PACKAGE SFR_0            ON UNIT   1031 AT TIME STEP      1, STRESS PERIOD      5

 WEL PACKAGE (WEL_0) FLOW RATES   PERIOD      5   STEP        1
 -----------------------------------------------
   NUMBER   CELLID                    RATE      
 -----------------------------------------------
     1      (1,10,17)            -300.00000     
     2      (1,12,14)            -300.00000     
     3      (1,21,15)            -300.00000     
     4      (1,27,11)            -300.00000     
     5      (1,30,7)             -300.00000     
     6      (1,35,13)            -300.00000     
     7      (1,25,5)              0.0000000     
 -----------------------------------------------




 HEAD WILL BE SAVED ON UNIT 1032 AT END OF TIME STEP    1, STRESS PERIOD    5


  SFR_0 BUDGET FOR ENTIRE MODEL AT END OF TIME STEP    1, STRESS PERIOD   5
  ------------------------------------------------------------------------------

     CUMULATIVE SFR_0      L**3       RATES FOR THIS TIME STEP      L**3/T
     ------------------                 ------------------------

           IN:                                      IN:
           ---                                      ---
                 GWF =     5459813.8092                   GWF =        1377.2013
            RAINFALL =           0.0000              RAINFALL =           0.0000
         EVAPORATION =           0.0000           EVAPORATION =           0.0000
              RUNOFF =           0.0000                RUNOFF =           0.0000
          EXT-INFLOW =     1886750.0000            EXT-INFLOW =         500.0000
         EXT-OUTFLOW =           0.0000           EXT-OUTFLOW =           0.0000
             STORAGE =           0.0000               STORAGE =           0.0000

            TOTAL IN =     7346563.8092              TOTAL IN =        1877.2013

          OUT:                                     OUT:
          ----                                     ----
                 GWF =     1020903.1076                   GWF =         272.0641
            RAINFALL =           0.0000              RAINFALL =           0.0000
         EVAPORATION =           0.0000           EVAPORATION =           0.0000
              RUNOFF =           0.0000                RUNOFF =           0.0000
          EXT-INFLOW =           0.0000            EXT-INFLOW =           0.0000
         EXT-OUTFLOW =     6325660.7016           EXT-OUTFLOW =        1605.1372
             STORAGE =           0.0000               STORAGE =           0.0000

           TOTAL OUT =     7346563.8092             TOTAL OUT =        1877.2013

            IN - OUT =       9.3132E-10              IN - OUT =           0.0000

 PERCENT DISCREPANCY =           0.00     PERCENT DISCREPANCY =           0.00



  VOLUME BUDGET FOR ENTIRE MODEL AT END OF TIME STEP    1, STRESS PERIOD   5
  ---------------------------------------------------------------------------------------------------

     CUMULATIVE VOLUME      L**3       RATES FOR THIS TIME STEP      L**3/T          PACKAGE NAME    
     ------------------                 ------------------------                     ----------------

           IN:                                      IN:
           ---                                      ---
              STO-SS =           4.3281                STO-SS =           0.0000     STORAGE                          
              STO-SY =       26544.2526                STO-SY =           0.0000     STORAGE                          
                 WEL =           0.0000                   WEL =           0.0000     WEL_0                            
                 GHB =           0.0000                   GHB =           0.0000     GHB_0                            
                RCHA =    10324373.4392                  RCHA =        5106.8157     RCHA_0                           
                 SFR =     1022470.8854                   SFR =         271.8898     SFR_0                            

            TOTAL IN =    11373392.9053              TOTAL IN =        5378.7055

          OUT:                                     OUT:
          ----                                     ----
              STO-SS =           4.5920                STO-SS =       6.5555E-02     STORAGE                          
              STO-SY =       51877.8438                STO-SY =         669.0004     STORAGE                          
                 WEL =      189900.0000                   WEL =        1800.0000     WEL_0                            
                 GHB =     5697432.0427                   GHB =        1530.9920     GHB_0                            
                RCHA =           0.0000                  RCHA =           0.0000     RCHA_0                           
                 SFR =     5455419.9641                   SFR =        1377.7706     SFR_0                            

           TOTAL OUT =    11394634.4426             TOTAL OUT =        5377.8285

            IN - OUT =      -21241.5374              IN - OUT =           0.8769

 PERCENT DISCREPANCY =          -0.19     PERCENT DISCREPANCY =           0.02




         TIME SUMMARY AT END OF TIME STEP    1 IN STRESS PERIOD    5
                    SECONDS     MINUTES      HOURS       DAYS        YEARS
                    -----------------------------------------------------------
   TIME STEP LENGTH 2.59200E+06  43200.      720.00      30.000     8.21355E-02
 STRESS PERIOD TIME 2.59200E+06  43200.      720.00      30.000     8.21355E-02
         TOTAL TIME 3.26030E+08 5.43384E+06  90564.      3773.5      10.331    


end timestep


start timestep kper="6" kstp="1" mode="normal"


 OUTPUT CONTROL FOR STRESS PERIOD 6 IS REPEATED USING SETTINGS FROM A PREVIOUS STRESS PERIOD.


 PROCESSING STORAGE PERIOD DATA
 END PROCESSING STORAGE PERIOD DATA


 STRESS PERIOD 6 IS TRANSIENT


 OPENED downsc_freyberg.wel_stress_period_data_6.txt
 FILE TYPE:OPEN/CLOSE   UNIT 1044   STATUS:OLD                 
 FORMAT:FORMATTED              ACCESS:SEQUENTIAL          
 ACTION:READ                

 ---------------------------------------------------
  WEL NO.    LAYER    ROW     COL     STRESS RATE   
 ---------------------------------------------------
     1         1      10      17    -300.000000     
     2         1      12      14    -300.000000     
     3         1      21      15    -300.000000     
     4         1      27      11    -300.000000     
     5         1      30       7    -300.000000     
     6         1      35      13    -300.000000     
     7         1      25       5     0.00000000     
 ---------------------------------------------------



 REUSING GHBS FROM LAST STRESS PERIOD

 OPENED downsc_freyberg.rcha_recharge_6.txt
 FILE TYPE:OPEN/CLOSE   UNIT 1045   STATUS:OLD                 
 FORMAT:FORMATTED              ACCESS:SEQUENTIAL          
 ACTION:READ                


 REUSING SFRS FROM LAST STRESS PERIOD
 UBDSV1 SAVING           STO-SS ON UNIT   1031 AT TIME STEP      1, STRESS PERIOD      6
 UBDSV1 SAVING           STO-SY ON UNIT   1031 AT TIME STEP      1, STRESS PERIOD      6
 UBDSV1 SAVING     FLOW-JA-FACE ON UNIT   1031 AT TIME STEP      1, STRESS PERIOD      6
 UBDSV06 SAVING       DATA-SPDIS IN MODEL DOWNSC_FREYBERG  PACKAGE NPF             CONNECTED TO MODEL DOWNSC_FREYBERG  PACKAGE NPF              ON UNIT   1031 AT TIME STEP      1, STRESS PERIOD      6
 UBDSV06 SAVING              WEL IN MODEL DOWNSC_FREYBERG  PACKAGE DOWNSC_FREYBERG CONNECTED TO MODEL DOWNSC_FREYBERG  PACKAGE WEL_0            ON UNIT   1031 AT TIME STEP      1, STRESS PERIOD      6
 UBDSV06 SAVING              GHB IN MODEL DOWNSC_FREYBERG  PACKAGE DOWNSC_FREYBERG CONNECTED TO MODEL DOWNSC_FREYBERG  PACKAGE GHB_0            ON UNIT   1031 AT TIME STEP      1, STRESS PERIOD      6
 UBDSV06 SAVING             RCHA IN MODEL DOWNSC_FREYBERG  PACKAGE DOWNSC_FREYBERG CONNECTED TO MODEL DOWNSC_FREYBERG  PACKAGE RCHA_0           ON UNIT   1031 AT TIME STEP      1, STRESS PERIOD      6
 UBDSV06 SAVING              SFR IN MODEL DOWNSC_FREYBERG  PACKAGE DOWNSC_FREYBERG CONNECTED TO MODEL DOWNSC_FREYBERG  PACKAGE SFR_0            ON UNIT   1031 AT TIME STEP      1, STRESS PERIOD      6

 WEL PACKAGE (WEL_0) FLOW RATES   PERIOD      6   STEP        1
 -----------------------------------------------
   NUMBER   CELLID                    RATE      
 -----------------------------------------------
     1      (1,10,17)            -300.00000     
     2      (1,12,14)            -300.00000     
     3      (1,21,15)            -300.00000     
     4      (1,27,11)            -300.00000     
     5      (1,30,7)             -300.00000     
     6      (1,35,13)            -300.00000     
     7      (1,25,5)              0.0000000     
 -----------------------------------------------




 HEAD WILL BE SAVED ON UNIT 1032 AT END OF TIME STEP    1, STRESS PERIOD    6


  SFR_0 BUDGET FOR ENTIRE MODEL AT END OF TIME STEP    1, STRESS PERIOD   6
  ------------------------------------------------------------------------------

     CUMULATIVE SFR_0      L**3       RATES FOR THIS TIME STEP      L**3/T
     ------------------                 ------------------------

           IN:                                      IN:
           ---                                      ---
                 GWF =     5501926.4028                   GWF =        1358.4708
            RAINFALL =           0.0000              RAINFALL =           0.0000
         EVAPORATION =           0.0000           EVAPORATION =           0.0000
              RUNOFF =           0.0000                RUNOFF =           0.0000
          EXT-INFLOW =     1902250.0000            EXT-INFLOW =         500.0000
         EXT-OUTFLOW =           0.0000           EXT-OUTFLOW =           0.0000
             STORAGE =           0.0000               STORAGE =           0.0000

            TOTAL IN =     7404176.4028              TOTAL IN =        1858.4708

          OUT:                                     OUT:
          ----                                     ----
                 GWF =     1029233.1995                   GWF =         268.7126
            RAINFALL =           0.0000              RAINFALL =           0.0000
         EVAPORATION =           0.0000           EVAPORATION =           0.0000
              RUNOFF =           0.0000                RUNOFF =           0.0000
          EXT-INFLOW =           0.0000            EXT-INFLOW =           0.0000
         EXT-OUTFLOW =     6374943.2033           EXT-OUTFLOW =        1589.7581
             STORAGE =           0.0000               STORAGE =           0.0000

           TOTAL OUT =     7404176.4028             TOTAL OUT =        1858.4708

            IN - OUT =       9.3132E-10              IN - OUT =       2.2737E-13

 PERCENT DISCREPANCY =           0.00     PERCENT DISCREPANCY =           0.00



  VOLUME BUDGET FOR ENTIRE MODEL AT END OF TIME STEP    1, STRESS PERIOD   6
  ---------------------------------------------------------------------------------------------------

     CUMULATIVE VOLUME      L**3       RATES FOR THIS TIME STEP      L**3/T          PACKAGE NAME    
     ------------------                 ------------------------                     ----------------

           IN:                                      IN:
           ---                                      ---
              STO-SS =           4.9463                STO-SS =       1.9942E-02     STORAGE                          
              STO-SY =       30169.8964                STO-SY =         116.9563     STORAGE                          
                 WEL =           0.0000                   WEL =           0.0000     WEL_0                            
                 GHB =           0.0000                   GHB =           0.0000     GHB_0                            
                RCHA =    10465895.9753                  RCHA =        4565.2431     RCHA_0                           
                 SFR =     1030800.1422                   SFR =         268.6857     SFR_0                            

            TOTAL IN =    11526870.9602              TOTAL IN =        4950.9050

          OUT:                                     OUT:
          ----                                     ----
              STO-SS =           5.1703                STO-SS =       1.8656E-02     STORAGE                          
              STO-SY =       60331.0107                STO-SY =         272.6828     STORAGE                          
                 WEL =      245700.0000                   WEL =        1800.0000     WEL_0                            
                 GHB =     5744561.0563                   GHB =        1520.2908     GHB_0                            
                RCHA =           0.0000                  RCHA =           0.0000     RCHA_0                           
                 SFR =     5497525.0815                   SFR =        1358.2296     SFR_0                            

           TOTAL OUT =    11548122.3188             TOTAL OUT =        4951.2218

            IN - OUT =      -21251.3587              IN - OUT =          -0.3168

 PERCENT DISCREPANCY =          -0.18     PERCENT DISCREPANCY =          -0.01




         TIME SUMMARY AT END OF TIME STEP    1 IN STRESS PERIOD    6
                    SECONDS     MINUTES      HOURS       DAYS        YEARS
                    -----------------------------------------------------------
   TIME STEP LENGTH 2.67840E+06  44640.      744.00      31.000     8.48734E-02
 STRESS PERIOD TIME 2.67840E+06  44640.      744.00      31.000     8.48734E-02
         TOTAL TIME 3.28709E+08 5.47848E+06  91308.      3804.5      10.416    


end timestep


start timestep kper="7" kstp="1" mode="normal"


 OUTPUT CONTROL FOR STRESS PERIOD 7 IS REPEATED USING SETTINGS FROM A PREVIOUS STRESS PERIOD.


 PROCESSING STORAGE PERIOD DATA
 END PROCESSING STORAGE PERIOD DATA


 STRESS PERIOD 7 IS TRANSIENT


 OPENED downsc_freyberg.wel_stress_period_data_7.txt
 FILE TYPE:OPEN/CLOSE   UNIT 1046   STATUS:OLD                 
 FORMAT:FORMATTED              ACCESS:SEQUENTIAL          
 ACTION:READ                

 ---------------------------------------------------
  WEL NO.    LAYER    ROW     COL     STRESS RATE   
 ---------------------------------------------------
     1         1      10      17    -300.000000     
     2         1      12      14    -300.000000     
     3         1      21      15    -300.000000     
     4         1      27      11    -300.000000     
     5         1      30       7    -300.000000     
     6         1      35      13    -300.000000     
     7         1      25       5     0.00000000     
 ---------------------------------------------------



 REUSING GHBS FROM LAST STRESS PERIOD

 OPENED downsc_freyberg.rcha_recharge_7.txt
 FILE TYPE:OPEN/CLOSE   UNIT 1047   STATUS:OLD                 
 FORMAT:FORMATTED              ACCESS:SEQUENTIAL          
 ACTION:READ                


 REUSING SFRS FROM LAST STRESS PERIOD
 UBDSV1 SAVING           STO-SS ON UNIT   1031 AT TIME STEP      1, STRESS PERIOD      7
 UBDSV1 SAVING           STO-SY ON UNIT   1031 AT TIME STEP      1, STRESS PERIOD      7
 UBDSV1 SAVING     FLOW-JA-FACE ON UNIT   1031 AT TIME STEP      1, STRESS PERIOD      7
 UBDSV06 SAVING       DATA-SPDIS IN MODEL DOWNSC_FREYBERG  PACKAGE NPF             CONNECTED TO MODEL DOWNSC_FREYBERG  PACKAGE NPF              ON UNIT   1031 AT TIME STEP      1, STRESS PERIOD      7
 UBDSV06 SAVING              WEL IN MODEL DOWNSC_FREYBERG  PACKAGE DOWNSC_FREYBERG CONNECTED TO MODEL DOWNSC_FREYBERG  PACKAGE WEL_0            ON UNIT   1031 AT TIME STEP      1, STRESS PERIOD      7
 UBDSV06 SAVING              GHB IN MODEL DOWNSC_FREYBERG  PACKAGE DOWNSC_FREYBERG CONNECTED TO MODEL DOWNSC_FREYBERG  PACKAGE GHB_0            ON UNIT   1031 AT TIME STEP      1, STRESS PERIOD      7
 UBDSV06 SAVING             RCHA IN MODEL DOWNSC_FREYBERG  PACKAGE DOWNSC_FREYBERG CONNECTED TO MODEL DOWNSC_FREYBERG  PACKAGE RCHA_0           ON UNIT   1031 AT TIME STEP      1, STRESS PERIOD      7
 UBDSV06 SAVING              SFR IN MODEL DOWNSC_FREYBERG  PACKAGE DOWNSC_FREYBERG CONNECTED TO MODEL DOWNSC_FREYBERG  PACKAGE SFR_0            ON UNIT   1031 AT TIME STEP      1, STRESS PERIOD      7

 WEL PACKAGE (WEL_0) FLOW RATES   PERIOD      7   STEP        1
 -----------------------------------------------
   NUMBER   CELLID                    RATE      
 -----------------------------------------------
     1      (1,10,17)            -300.00000     
     2      (1,12,14)            -300.00000     
     3      (1,21,15)            -300.00000     
     4      (1,27,11)            -300.00000     
     5      (1,30,7)             -300.00000     
     6      (1,35,13)            -300.00000     
     7      (1,25,5)              0.0000000     
 -----------------------------------------------




 HEAD WILL BE SAVED ON UNIT 1032 AT END OF TIME STEP    1, STRESS PERIOD    7


  SFR_0 BUDGET FOR ENTIRE MODEL AT END OF TIME STEP    1, STRESS PERIOD   7
  ------------------------------------------------------------------------------

     CUMULATIVE SFR_0      L**3       RATES FOR THIS TIME STEP      L**3/T
     ------------------                 ------------------------

           IN:                                      IN:
           ---                                      ---
                 GWF =     5542673.3490                   GWF =        1358.2315
            RAINFALL =           0.0000              RAINFALL =           0.0000
         EVAPORATION =           0.0000           EVAPORATION =           0.0000
              RUNOFF =           0.0000                RUNOFF =           0.0000
          EXT-INFLOW =     1917250.0000            EXT-INFLOW =         500.0000
         EXT-OUTFLOW =           0.0000           EXT-OUTFLOW =           0.0000
[...]
          ----                                     ----
                 GWF =     1274556.5452                   GWF =         500.0000
            RAINFALL =           0.0000              RAINFALL =           0.0000
         EVAPORATION =           0.0000           EVAPORATION =           0.0000
              RUNOFF =           0.0000                RUNOFF =           0.0000
          EXT-INFLOW =           0.0000            EXT-INFLOW =           0.0000
         EXT-OUTFLOW =     6740089.6026           EXT-OUTFLOW =         338.0094
             STORAGE =           0.0000               STORAGE =           0.0000

           TOTAL OUT =     8014646.1478             TOTAL OUT =         838.0094

            IN - OUT =       1.8626E-09              IN - OUT =           0.0000

 PERCENT DISCREPANCY =           0.00     PERCENT DISCREPANCY =           0.00



  VOLUME BUDGET FOR ENTIRE MODEL AT END OF TIME STEP    1, STRESS PERIOD  23
  ---------------------------------------------------------------------------------------------------

     CUMULATIVE VOLUME      L**3       RATES FOR THIS TIME STEP      L**3/T          PACKAGE NAME    
     ------------------                 ------------------------                     ----------------

           IN:                                      IN:
           ---                                      ---
              STO-SS =         108.6351                STO-SS =           0.3751     STORAGE                          
              STO-SY =      824559.4559                STO-SY =        2918.8237     STORAGE                          
                 WEL =           0.0000                   WEL =           0.0000     WEL_0                            
                 GHB =           0.0000                   GHB =           0.0000     GHB_0                            
                RCHA =    11651115.0352                  RCHA =         210.5958     RCHA_0                           
                 SFR =     1277131.5500                   SFR =         500.0000     SFR_0                            

            TOTAL IN =    13752914.6762              TOTAL IN =        3629.7945

          OUT:                                     OUT:
          ----                                     ----
              STO-SS =          22.6489                STO-SS =           0.0000     STORAGE                          
              STO-SY =      188902.1014                STO-SY =           0.0000     STORAGE                          
                 WEL =     1378850.0000                   WEL =        2350.0000     WEL_0                            
                 GHB =     6361643.3483                   GHB =         943.6663     GHB_0                            
                RCHA =           0.0000                  RCHA =           0.0000     RCHA_0                           
                 SFR =     5845130.7667                   SFR =         336.8001     SFR_0                            

           TOTAL OUT =    13774548.8653             TOTAL OUT =        3630.4664

            IN - OUT =      -21634.1891              IN - OUT =          -0.6719

 PERCENT DISCREPANCY =          -0.16     PERCENT DISCREPANCY =          -0.02




         TIME SUMMARY AT END OF TIME STEP    1 IN STRESS PERIOD   23
                    SECONDS     MINUTES      HOURS       DAYS        YEARS
                    -----------------------------------------------------------
   TIME STEP LENGTH 2.67840E+06  44640.      744.00      31.000     8.48734E-02
 STRESS PERIOD TIME 2.67840E+06  44640.      744.00      31.000     8.48734E-02
         TOTAL TIME 3.73464E+08 6.22440E+06 1.03740E+05  4322.5      11.834    


end timestep


start timestep kper="24" kstp="1" mode="normal"


 OUTPUT CONTROL FOR STRESS PERIOD 24 IS REPEATED USING SETTINGS FROM A PREVIOUS STRESS PERIOD.


 PROCESSING STORAGE PERIOD DATA
 END PROCESSING STORAGE PERIOD DATA


 STRESS PERIOD 24 IS TRANSIENT


 OPENED downsc_freyberg.wel_stress_period_data_24.txt
 FILE TYPE:OPEN/CLOSE   UNIT 1080   STATUS:OLD                 
 FORMAT:FORMATTED              ACCESS:SEQUENTIAL          
 ACTION:READ                

 ---------------------------------------------------
  WEL NO.    LAYER    ROW     COL     STRESS RATE   
 ---------------------------------------------------
     1         1      10      17    -300.000000     
     2         1      12      14    -300.000000     
     3         1      21      15    -300.000000     
     4         1      27      11    -300.000000     
     5         1      30       7    -300.000000     
     6         1      35      13    -300.000000     
     7         1      25       5    -550.000000     
 ---------------------------------------------------



 REUSING GHBS FROM LAST STRESS PERIOD

 OPENED downsc_freyberg.rcha_recharge_24.txt
 FILE TYPE:OPEN/CLOSE   UNIT 1081   STATUS:OLD                 
 FORMAT:FORMATTED              ACCESS:SEQUENTIAL          
 ACTION:READ                


 REUSING SFRS FROM LAST STRESS PERIOD
 UBDSV1 SAVING           STO-SS ON UNIT   1031 AT TIME STEP      1, STRESS PERIOD     24
 UBDSV1 SAVING           STO-SY ON UNIT   1031 AT TIME STEP      1, STRESS PERIOD     24
 UBDSV1 SAVING     FLOW-JA-FACE ON UNIT   1031 AT TIME STEP      1, STRESS PERIOD     24
 UBDSV06 SAVING       DATA-SPDIS IN MODEL DOWNSC_FREYBERG  PACKAGE NPF             CONNECTED TO MODEL DOWNSC_FREYBERG  PACKAGE NPF              ON UNIT   1031 AT TIME STEP      1, STRESS PERIOD     24
 UBDSV06 SAVING              WEL IN MODEL DOWNSC_FREYBERG  PACKAGE DOWNSC_FREYBERG CONNECTED TO MODEL DOWNSC_FREYBERG  PACKAGE WEL_0            ON UNIT   1031 AT TIME STEP      1, STRESS PERIOD     24
 UBDSV06 SAVING              GHB IN MODEL DOWNSC_FREYBERG  PACKAGE DOWNSC_FREYBERG CONNECTED TO MODEL DOWNSC_FREYBERG  PACKAGE GHB_0            ON UNIT   1031 AT TIME STEP      1, STRESS PERIOD     24
 UBDSV06 SAVING             RCHA IN MODEL DOWNSC_FREYBERG  PACKAGE DOWNSC_FREYBERG CONNECTED TO MODEL DOWNSC_FREYBERG  PACKAGE RCHA_0           ON UNIT   1031 AT TIME STEP      1, STRESS PERIOD     24
 UBDSV06 SAVING              SFR IN MODEL DOWNSC_FREYBERG  PACKAGE DOWNSC_FREYBERG CONNECTED TO MODEL DOWNSC_FREYBERG  PACKAGE SFR_0            ON UNIT   1031 AT TIME STEP      1, STRESS PERIOD     24

 WEL PACKAGE (WEL_0) FLOW RATES   PERIOD     24   STEP        1
 -----------------------------------------------
   NUMBER   CELLID                    RATE      
 -----------------------------------------------
     1      (1,10,17)            -300.00000     
     2      (1,12,14)            -300.00000     
     3      (1,21,15)            -300.00000     
     4      (1,27,11)            -300.00000     
     5      (1,30,7)             -300.00000     
     6      (1,35,13)            -300.00000     
     7      (1,25,5)             -550.00000     
 -----------------------------------------------




 HEAD WILL BE SAVED ON UNIT 1032 AT END OF TIME STEP    1, STRESS PERIOD   24


  SFR_0 BUDGET FOR ENTIRE MODEL AT END OF TIME STEP    1, STRESS PERIOD  24
  ------------------------------------------------------------------------------

     CUMULATIVE SFR_0      L**3       RATES FOR THIS TIME STEP      L**3/T
     ------------------                 ------------------------

           IN:                                      IN:
           ---                                      ---
                 GWF =     5862377.2352                   GWF =         299.3696
            RAINFALL =           0.0000              RAINFALL =           0.0000
         EVAPORATION =           0.0000           EVAPORATION =           0.0000
              RUNOFF =           0.0000                RUNOFF =           0.0000
          EXT-INFLOW =     2176250.0000            EXT-INFLOW =         500.0000
         EXT-OUTFLOW =           0.0000           EXT-OUTFLOW =           0.0000
             STORAGE =           0.0000               STORAGE =           0.0000

            TOTAL IN =     8038627.2352              TOTAL IN =         799.3696

          OUT:                                     OUT:
          ----                                     ----
                 GWF =     1289556.5452                   GWF =         500.0000
            RAINFALL =           0.0000              RAINFALL =           0.0000
         EVAPORATION =           0.0000           EVAPORATION =           0.0000
              RUNOFF =           0.0000                RUNOFF =           0.0000
          EXT-INFLOW =           0.0000            EXT-INFLOW =           0.0000
         EXT-OUTFLOW =     6749070.6900           EXT-OUTFLOW =         299.3696
             STORAGE =           0.0000               STORAGE =           0.0000

           TOTAL OUT =     8038627.2352             TOTAL OUT =         799.3696

            IN - OUT =       1.8626E-09              IN - OUT =           0.0000

 PERCENT DISCREPANCY =           0.00     PERCENT DISCREPANCY =           0.00



  VOLUME BUDGET FOR ENTIRE MODEL AT END OF TIME STEP    1, STRESS PERIOD  24
  ---------------------------------------------------------------------------------------------------

     CUMULATIVE VOLUME      L**3       RATES FOR THIS TIME STEP      L**3/T          PACKAGE NAME    
     ------------------                 ------------------------                     ----------------

           IN:                                      IN:
           ---                                      ---
              STO-SS =         117.2378                STO-SS =           0.2868     STORAGE                          
              STO-SY =      892467.4853                STO-SY =        2263.6010     STORAGE                          
                 WEL =           0.0000                   WEL =           0.0000     WEL_0                            
                 GHB =           0.0000                   GHB =           0.0000     GHB_0                            
                RCHA =    11674846.4098                  RCHA =         791.0458     RCHA_0                           
                 SFR =     1292134.1682                   SFR =         500.0873     SFR_0                            

            TOTAL IN =    13859565.3011              TOTAL IN =        3555.0208

          OUT:                                     OUT:
          ----                                     ----
              STO-SS =          22.6489                STO-SS =       7.4435E-08     STORAGE                          
              STO-SY =      188932.7568                STO-SY =           1.0218     STORAGE                          
                 WEL =     1449350.0000                   WEL =        2350.0000     WEL_0                            
                 GHB =     6388863.6281                   GHB =         907.3427     GHB_0                            
                RCHA =           0.0000                  RCHA =           0.0000     RCHA_0                           
                 SFR =     5854093.9491                   SFR =         298.7727     SFR_0                            

           TOTAL OUT =    13881262.9828             TOTAL OUT =        3557.1373

            IN - OUT =      -21697.6817              IN - OUT =          -2.1164

 PERCENT DISCREPANCY =          -0.16     PERCENT DISCREPANCY =          -0.06




         TIME SUMMARY AT END OF TIME STEP    1 IN STRESS PERIOD   24
                    SECONDS     MINUTES      HOURS       DAYS        YEARS
                    -----------------------------------------------------------
   TIME STEP LENGTH 2.59200E+06  43200.      720.00      30.000     8.21355E-02
 STRESS PERIOD TIME 2.59200E+06  43200.      720.00      30.000     8.21355E-02
         TOTAL TIME 3.76056E+08 6.26760E+06 1.04460E+05  4352.5      11.916    


end timestep


start timestep kper="25" kstp="1" mode="normal"


 OUTPUT CONTROL FOR STRESS PERIOD 25 IS REPEATED USING SETTINGS FROM A PREVIOUS STRESS PERIOD.


 PROCESSING STORAGE PERIOD DATA
 END PROCESSING STORAGE PERIOD DATA


 STRESS PERIOD 25 IS TRANSIENT


 OPENED downsc_freyberg.wel_stress_period_data_25.txt
 FILE TYPE:OPEN/CLOSE   UNIT 1082   STATUS:OLD                 
 FORMAT:FORMATTED              ACCESS:SEQUENTIAL          
 ACTION:READ                

 ---------------------------------------------------
  WEL NO.    LAYER    ROW     COL     STRESS RATE   
 ---------------------------------------------------
     1         1      10      17    -300.000000     
     2         1      12      14    -300.000000     
     3         1      21      15    -300.000000     
     4         1      27      11    -300.000000     
     5         1      30       7    -300.000000     
     6         1      35      13    -300.000000     
     7         1      25       5    -550.000000     
 ---------------------------------------------------



 REUSING GHBS FROM LAST STRESS PERIOD

 OPENED downsc_freyberg.rcha_recharge_25.txt
 FILE TYPE:OPEN/CLOSE   UNIT 1083   STATUS:OLD                 
 FORMAT:FORMATTED              ACCESS:SEQUENTIAL          
 ACTION:READ                


 REUSING SFRS FROM LAST STRESS PERIOD
 UBDSV1 SAVING           STO-SS ON UNIT   1031 AT TIME STEP      1, STRESS PERIOD     25
 UBDSV1 SAVING           STO-SY ON UNIT   1031 AT TIME STEP      1, STRESS PERIOD     25
 UBDSV1 SAVING     FLOW-JA-FACE ON UNIT   1031 AT TIME STEP      1, STRESS PERIOD     25
 UBDSV06 SAVING       DATA-SPDIS IN MODEL DOWNSC_FREYBERG  PACKAGE NPF             CONNECTED TO MODEL DOWNSC_FREYBERG  PACKAGE NPF              ON UNIT   1031 AT TIME STEP      1, STRESS PERIOD     25
 UBDSV06 SAVING              WEL IN MODEL DOWNSC_FREYBERG  PACKAGE DOWNSC_FREYBERG CONNECTED TO MODEL DOWNSC_FREYBERG  PACKAGE WEL_0            ON UNIT   1031 AT TIME STEP      1, STRESS PERIOD     25
 UBDSV06 SAVING              GHB IN MODEL DOWNSC_FREYBERG  PACKAGE DOWNSC_FREYBERG CONNECTED TO MODEL DOWNSC_FREYBERG  PACKAGE GHB_0            ON UNIT   1031 AT TIME STEP      1, STRESS PERIOD     25
 UBDSV06 SAVING             RCHA IN MODEL DOWNSC_FREYBERG  PACKAGE DOWNSC_FREYBERG CONNECTED TO MODEL DOWNSC_FREYBERG  PACKAGE RCHA_0           ON UNIT   1031 AT TIME STEP      1, STRESS PERIOD     25
 UBDSV06 SAVING              SFR IN MODEL DOWNSC_FREYBERG  PACKAGE DOWNSC_FREYBERG CONNECTED TO MODEL DOWNSC_FREYBERG  PACKAGE SFR_0            ON UNIT   1031 AT TIME STEP      1, STRESS PERIOD     25

 WEL PACKAGE (WEL_0) FLOW RATES   PERIOD     25   STEP        1
 -----------------------------------------------
   NUMBER   CELLID                    RATE      
 -----------------------------------------------
     1      (1,10,17)            -300.00000     
     2      (1,12,14)            -300.00000     
     3      (1,21,15)            -300.00000     
     4      (1,27,11)            -300.00000     
     5      (1,30,7)             -300.00000     
     6      (1,35,13)            -300.00000     
     7      (1,25,5)             -550.00000     
 -----------------------------------------------




 HEAD WILL BE SAVED ON UNIT 1032 AT END OF TIME STEP    1, STRESS PERIOD   25


  SFR_0 BUDGET FOR ENTIRE MODEL AT END OF TIME STEP    1, STRESS PERIOD  25
  ------------------------------------------------------------------------------

     CUMULATIVE SFR_0      L**3       RATES FOR THIS TIME STEP      L**3/T
     ------------------                 ------------------------

           IN:                                      IN:
           ---                                      ---
                 GWF =     5871835.0635                   GWF =         305.0912
            RAINFALL =           0.0000              RAINFALL =           0.0000
         EVAPORATION =           0.0000           EVAPORATION =           0.0000
              RUNOFF =           0.0000                RUNOFF =           0.0000
          EXT-INFLOW =     2191750.0000            EXT-INFLOW =         500.0000
         EXT-OUTFLOW =           0.0000           EXT-OUTFLOW =           0.0000
             STORAGE =           0.0000               STORAGE =           0.0000

            TOTAL IN =     8063585.0635              TOTAL IN =         805.0912

          OUT:                                     OUT:
          ----                                     ----
                 GWF =     1305056.5452                   GWF =         500.0000
            RAINFALL =           0.0000              RAINFALL =           0.0000
         EVAPORATION =           0.0000           EVAPORATION =           0.0000
              RUNOFF =           0.0000                RUNOFF =           0.0000
          EXT-INFLOW =           0.0000            EXT-INFLOW =           0.0000
         EXT-OUTFLOW =     6758528.5183           EXT-OUTFLOW =         305.0912
             STORAGE =           0.0000               STORAGE =           0.0000

           TOTAL OUT =     8063585.0635             TOTAL OUT =         805.0912

            IN - OUT =       1.8626E-09              IN - OUT =           0.0000

 PERCENT DISCREPANCY =           0.00     PERCENT DISCREPANCY =           0.00



  VOLUME BUDGET FOR ENTIRE MODEL AT END OF TIME STEP    1, STRESS PERIOD  25
  ---------------------------------------------------------------------------------------------------

     CUMULATIVE VOLUME      L**3       RATES FOR THIS TIME STEP      L**3/T          PACKAGE NAME    
     ------------------                 ------------------------                     ----------------

           IN:                                      IN:
           ---                                      ---
              STO-SS =         119.8065                STO-SS =       8.2860E-02     STORAGE                          
              STO-SY =      914538.6801                STO-SY =         711.9740     STORAGE                          
                 WEL =           0.0000                   WEL =           0.0000     WEL_0                            
                 GHB =           0.0000                   GHB =           0.0000     GHB_0                            
                RCHA =    11749694.3412                  RCHA =        2414.4494     RCHA_0                           
                 SFR =     1307634.1682                   SFR =         500.0000     SFR_0                            

            TOTAL IN =    13971986.9959              TOTAL IN =        3626.5063

          OUT:                                     OUT:
          ----                                     ----
              STO-SS =          22.7956                STO-SS =       4.7327E-03     STORAGE                          
              STO-SY =      190410.8938                STO-SY =          47.6818     STORAGE                          
                 WEL =     1522200.0000                   WEL =        2350.0000     WEL_0                            
                 GHB =     6417536.7712                   GHB =         924.9401     GHB_0                            
                RCHA =           0.0000                  RCHA =           0.0000     RCHA_0                           
                 SFR =     5863546.4415                   SFR =         304.9191     SFR_0                            

           TOTAL OUT =    13993716.9020             TOTAL OUT =        3627.5458

            IN - OUT =      -21729.9061              IN - OUT =          -1.0395

 PERCENT DISCREPANCY =          -0.16     PERCENT DISCREPANCY =          -0.03




         TIME SUMMARY AT END OF TIME STEP    1 IN STRESS PERIOD   25
                    SECONDS     MINUTES      HOURS       DAYS        YEARS
                    -----------------------------------------------------------
   TIME STEP LENGTH 2.67840E+06  44640.      744.00      31.000     8.48734E-02
 STRESS PERIOD TIME 2.67840E+06  44640.      744.00      31.000     8.48734E-02
         TOTAL TIME 3.78734E+08 6.31224E+06 1.05204E+05  4383.5      12.001    


end timestep

